Networks/Rural/RuralMV_LinesLaterals1.txt
New Line.MVFeeder1.1    Bus1=Main_Busbar    Bus2=1_1    Length=10   units=m Linecode=Line_185
New Line.MVFeeder1.2    Bus1=1_1    Bus2=1_2    Length=10   units=m Linecode=Line_185
New Line.MVFeeder1.3    Bus1=1_2    Bus2=1_3    Length=10   units=m Linecode=Line_185
New Line.MVFeeder1.4    Bus1=1_3    Bus2=1_4    Length=10   units=m Linecode=Line_185
New Line.MVFeeder1.5    Bus1=1_4    Bus2=1_5    Length=10   units=m Linecode=Line_185
New Line.MVFeeder1.6    Bus1=1_5    Bus2=1_6    Length=10   units=m Linecode=Line_185
New Line.MVFeeder1.7    Bus1=1_6    Bus2=1_7    Length=10   units=m Linecode=Line_185
New Line.MVFeeder1.8    Bus1=1_7    Bus2=1_8    Length=10   units=m Linecode=Line_185
New Line.MVFeeder1.9    Bus1=1_8    Bus2=1_9    Length=10   units=m Linecode=Line_185
New Line.MVFeeder1.10   Bus1=1_9    Bus2=1_10   Length=10   units=m Linecode=Line_185
New Line.MVFeeder1.11   Bus1=1_10   Bus2=1_11   Length=10   units=m Linecode=Line_185
New Line.MVFeeder1.12   Bus1=1_11   Bus2=1_12   Length=10   units=m Linecode=Line_185
New Line.MVFeeder1.13   Bus1=1_12   Bus2=1_13   Length=10   units=m Linecode=Line_185
New Line.MVFeeder1.14   Bus1=1_13   Bus2=1_14   Length=10   units=m Linecode=Line_185
New Line.MVFeeder1.15   Bus1=1_14   Bus2=1_15   Length=10   units=m Linecode=Line_185
New Line.MVFeeder1.16   Bus1=1_15   Bus2=1_16   Length=10   units=m Linecode=Line_185
New Line.MVFeeder1.17   Bus1=1_16   Bus2=1_17   Length=10   units=m Linecode=Line_185
New Line.MVFeeder1.18   Bus1=1_17   Bus2=1_18   Length=10   units=m Linecode=Line_185
New Line.MVFeeder1.19   Bus1=1_18   Bus2=1_19   Length=10   units=m Linecode=Line_185
New Line.MVFeeder1.20   Bus1=1_19   Bus2=1_20   Length=10   units=m Linecode=Line_185
New Line.MVFeeder1.21   Bus1=1_20   Bus2=1_21   Length=10   units=m Linecode=Line_185
New Line.MVFeeder1.22   Bus1=1_21   Bus2=1_22   Length=10   units=m Linecode=Line_185
New Line.MVFeeder1.23   Bus1=1_22   Bus2=1_23   Length=10   units=m Linecode=Line_185
New Line.MVFeeder1.24   Bus1=1_23   Bus2=1_24   Length=10   units=m Linecode=Line_185
New Line.MVFeeder1.25   Bus1=1_24   Bus2=1_25   Length=10   units=m Linecode=Line_185
New Line.MVFeeder1.26   Bus1=1_25   Bus2=1_26   Length=10   units=m Linecode=Line_185
New Line.MVFeeder1.27   Bus1=1_26   Bus2=1_27   Length=10   units=m Linecode=Line_185
New Line.MVFeeder1.28   Bus1=1_27   Bus2=1_28   Length=10   units=m Linecode=Line_185
New Line.MVFeeder1.29   Bus1=1_28   Bus2=1_29   Length=10   units=m Linecode=Line_185
New Line.MVFeeder1.30   Bus1=1_29   Bus2=1_30   Length=10   units=m Linecode=Line_185
                        
New Line.MVFeeder1.31   Bus1=1_30   Bus2=1_31   Length=10   units=m Linecode=Line_185
New Line.MVFeeder1.32   Bus1=1_31   Bus2=1_32   Length=10   units=m Linecode=Line_185
New Line.MVFeeder1.33   Bus1=1_32   Bus2=1_33   Length=10   units=m Linecode=Line_185
New Line.MVFeeder1.34   Bus1=1_33   Bus2=1_34   Length=10   units=m Linecode=Line_185
New Line.MVFeeder1.35   Bus1=1_34   Bus2=1_35   Length=10   units=m Linecode=Line_185
                        
New Line.MVFeeder1.36   Bus1=1_35   Bus2=1_36   Length=10   units=m Linecode=Line_185
                        
New Line.MVFeeder1.37   Bus1=1_36   Bus2=1_37   Length=10   units=m Linecode=Line_185
New Line.MVFeeder1.38   Bus1=1_37   Bus2=1_38   Length=10   units=m Linecode=Line_185
New Line.MVFeeder1.39   Bus1=1_38   Bus2=1_39   Length=10   units=m Linecode=Line_185
New Line.MVFeeder1.40   Bus1=1_39   Bus2=1_40   Length=10   units=m Linecode=Line_185
New Line.MVFeeder1.41   Bus1=1_40   Bus2=1_41   Length=10   units=m Linecode=Line_185
New Line.MVFeeder1.42   Bus1=1_41   Bus2=1_42   Length=10   units=m Linecode=Line_185
New Line.MVFeeder1.43   Bus1=1_42   Bus2=1_43   Length=10   units=m Linecode=Line_185
New Line.MVFeeder1.44   Bus1=1_43   Bus2=1_44   Length=10   units=m Linecode=Line_185
New Line.MVFeeder1.45   Bus1=1_44   Bus2=1_45   Length=10   units=m Linecode=Line_185
                        
                        
New Line.MVLateral1_start_1 Bus1=1_44   Bus2=1_46   Length=10   units=m Linecode=Line_95
New Line.MVLateral1.47  Bus1=1_46   Bus2=1_47   Length=10   units=m Linecode=Line_95
New Line.MVLateral1.48  Bus1=1_47   Bus2=1_48   Length=10   units=m Linecode=Line_95
New Line.MVLateral1.49  Bus1=1_48   Bus2=1_49   Length=10   units=m Linecode=Line_95
New Line.MVLateral1.50  Bus1=1_49   Bus2=1_50   Length=10   units=m Linecode=Line_95
New Line.MVLateral1.51  Bus1=1_50   Bus2=1_51   Length=10   units=m Linecode=Line_95
New Line.MVLateral1.52  Bus1=1_51   Bus2=1_52   Length=10   units=m Linecode=Line_95
New Line.MVLateral1.53  Bus1=1_52   Bus2=1_53   Length=10   units=m Linecode=Line_95
New Line.MVLateral1.54  Bus1=1_53   Bus2=1_54   Length=10   units=m Linecode=Line_95
New Line.MVLateral1.55  Bus1=1_54   Bus2=1_55   Length=10   units=m Linecode=Line_95
New Line.MVLateral1.56  Bus1=1_55   Bus2=1_56   Length=10   units=m Linecode=Line_95
New Line.MVLateral1.57  Bus1=1_56   Bus2=1_57   Length=10   units=m Linecode=Line_95
New Line.MVLateral1.58  Bus1=1_57   Bus2=1_58   Length=10   units=m Linecode=Line_95
New Line.MVLateral1.59  Bus1=1_58   Bus2=1_59   Length=10   units=m Linecode=Line_95
New Line.MVLateral1.60  Bus1=1_59   Bus2=1_60   Length=10   units=m Linecode=Line_95
New Line.MVLateral1.61  Bus1=1_60   Bus2=1_61   Length=10   units=m Linecode=Line_95
New Line.MVLateral1.62  Bus1=1_61   Bus2=1_62   Length=10   units=m Linecode=Line_95
New Line.MVLateral1.63  Bus1=1_62   Bus2=1_63   Length=10   units=m Linecode=Line_95
New Line.MVLateral1.64  Bus1=1_63   Bus2=1_64   Length=10   units=m Linecode=Line_95
New Line.MVLateral1.65  Bus1=1_64   Bus2=1_65   Length=10   units=m Linecode=Line_95
New Line.MVLateral1.66  Bus1=1_65   Bus2=1_66   Length=10   units=m Linecode=Line_95
New Line.MVLateral1.67  Bus1=1_66   Bus2=1_67   Length=10   units=m Linecode=Line_95
New Line.MVLateral1.68  Bus1=1_67   Bus2=1_68   Length=10   units=m Linecode=Line_95
New Line.MVLateral1.69  Bus1=1_68   Bus2=1_69   Length=10   units=m Linecode=Line_95
New Line.MVLateral1.70  Bus1=1_69   Bus2=1_70   Length=10   units=m Linecode=Line_95
New Line.MVLateral1.71  Bus1=1_70   Bus2=1_71   Length=10   units=m Linecode=Line_95
New Line.MVLateral1.72  Bus1=1_71   Bus2=1_72   Length=10   units=m Linecode=Line_95
New Line.MVLateral1.73  Bus1=1_72   Bus2=1_73   Length=10   units=m Linecode=Line_95
New Line.MVLateral1.74  Bus1=1_73   Bus2=1_74   Length=10   units=m Linecode=Line_95
New Line.MVLateral1.75  Bus1=1_74   Bus2=1_75   Length=10   units=m Linecode=Line_95
New Line.MVLateral1.76  Bus1=1_75   Bus2=1_76   Length=10   units=m Linecode=Line_95
New Line.MVLateral1.77  Bus1=1_76   Bus2=1_77   Length=10   units=m Linecode=Line_95
New Line.MVLateral1.78  Bus1=1_77   Bus2=1_78   Length=10   units=m Linecode=Line_95
New Line.MVLateral1.79  Bus1=1_78   Bus2=1_79   Length=10   units=m Linecode=Line_95
New Line.MVLateral1.80  Bus1=1_79   Bus2=1_80   Length=10   units=m Linecode=Line_95
New Line.MVLateral1.81  Bus1=1_80   Bus2=1_81   Length=10   units=m Linecode=Line_95
New Line.MVLateral1.82  Bus1=1_81   Bus2=1_82   Length=10   units=m Linecode=Line_95
New Line.MVLateral1.83  Bus1=1_82   Bus2=1_83   Length=10   units=m Linecode=Line_95
New Line.MVLateral1.84  Bus1=1_83   Bus2=1_84   Length=10   units=m Linecode=Line_95
New Line.MVLateral1.85  Bus1=1_84   Bus2=1_85   Length=10   units=m Linecode=Line_95
New Line.MVLateral1.86  Bus1=1_85   Bus2=1_86   Length=10   units=m Linecode=Line_95
New Line.MVLateral1.87  Bus1=1_86   Bus2=1_87   Length=10   units=m Linecode=Line_95
New Line.MVLateral1.88  Bus1=1_87   Bus2=1_88   Length=10   units=m Linecode=Line_95
New Line.MVLateral1.89  Bus1=1_88   Bus2=1_89   Length=10   units=m Linecode=Line_95
New Line.MVLateral1.90  Bus1=1_89   Bus2=1_90   Length=10   units=m Linecode=Line_95
New Line.MVLateral1.91  Bus1=1_90   Bus2=1_91   Length=10   units=m Linecode=Line_95
New Line.MVLateral1.92  Bus1=1_91   Bus2=1_92   Length=10   units=m Linecode=Line_95
New Line.MVLateral1.93  Bus1=1_92   Bus2=1_93   Length=10   units=m Linecode=Line_95
New Line.MVLateral1.94  Bus1=1_93   Bus2=1_94   Length=10   units=m Linecode=Line_95
New Line.MVLateral1.95  Bus1=1_94   Bus2=1_95   Length=10   units=m Linecode=Line_95
New Line.MVLateral1.96  Bus1=1_95   Bus2=1_96   Length=10   units=m Linecode=Line_95
New Line.MVLateral1.97  Bus1=1_96   Bus2=1_97   Length=10   units=m Linecode=Line_95
New Line.MVLateral1.98  Bus1=1_97   Bus2=1_98   Length=10   units=m Linecode=Line_95
New Line.MVLateral1.99  Bus1=1_98   Bus2=1_99   Length=10   units=m Linecode=Line_95
                        
New Line.MVLateral1.100 Bus1=1_99   Bus2=1_100  Length=10   units=m Linecode=Line_95
New Line.MVLateral1.101 Bus1=1_100  Bus2=1_101  Length=10   units=m Linecode=Line_95
New Line.MVLateral1.102 Bus1=1_101  Bus2=1_102  Length=10   units=m Linecode=Line_95
New Line.MVLateral1.103 Bus1=1_102  Bus2=1_103  Length=10   units=m Linecode=Line_95
New Line.MVLateral1.104 Bus1=1_103  Bus2=1_104  Length=10   units=m Linecode=Line_95
New Line.MVLateral1.105 Bus1=1_104  Bus2=1_105  Length=10   units=m Linecode=Line_95
New Line.MVLateral1.106 Bus1=1_105  Bus2=1_106  Length=10   units=m Linecode=Line_95
New Line.MVLateral1.107 Bus1=1_106  Bus2=1_107  Length=10   units=m Linecode=Line_95
New Line.MVLateral1.108 Bus1=1_107  Bus2=1_108  Length=10   units=m Linecode=Line_95
New Line.MVLateral1.109 Bus1=1_108  Bus2=1_109  Length=10   units=m Linecode=Line_95
New Line.MVLateral1.110 Bus1=1_109  Bus2=1_110  Length=10   units=m Linecode=Line_95
New Line.MVLateral1.111 Bus1=1_110  Bus2=1_111  Length=10   units=m Linecode=Line_95
New Line.MVLateral1.112 Bus1=1_111  Bus2=1_112  Length=10   units=m Linecode=Line_95
New Line.MVLateral1.113 Bus1=1_112  Bus2=1_113  Length=10   units=m Linecode=Line_95
New Line.MVLateral1.114 Bus1=1_113  Bus2=1_114  Length=10   units=m Linecode=Line_95
New Line.MVLateral1.115 Bus1=1_114  Bus2=1_115  Length=10   units=m Linecode=Line_95
New Line.MVLateral1.116 Bus1=1_115  Bus2=1_116  Length=10   units=m Linecode=Line_95
New Line.MVLateral1.117 Bus1=1_116  Bus2=1_117  Length=10   units=m Linecode=Line_95
New Line.MVLateral1.118 Bus1=1_117  Bus2=1_118  Length=10   units=m Linecode=Line_95
New Line.MVLateral1.119 Bus1=1_118  Bus2=1_119  Length=10   units=m Linecode=Line_95
New Line.MVLateral1.120 Bus1=1_119  Bus2=1_120  Length=10   units=m Linecode=Line_95
New Line.MVLateral1.121 Bus1=1_120  Bus2=1_121  Length=10   units=m Linecode=Line_95
New Line.MVLateral1.122 Bus1=1_121  Bus2=1_122  Length=10   units=m Linecode=Line_95
New Line.MVLateral1.123 Bus1=1_122  Bus2=1_123  Length=10   units=m Linecode=Line_95
New Line.MVLateral1.124 Bus1=1_123  Bus2=1_124  Length=10   units=m Linecode=Line_95
New Line.MVLateral1.125 Bus1=1_124  Bus2=1_125  Length=10   units=m Linecode=Line_95
New Line.MVLateral1.126 Bus1=1_125  Bus2=1_126  Length=10   units=m Linecode=Line_95
New Line.MVLateral1.127 Bus1=1_126  Bus2=1_127  Length=10   units=m Linecode=Line_95
New Line.MVLateral1.128 Bus1=1_127  Bus2=1_128  Length=10   units=m Linecode=Line_95
New Line.MVLateral1.129 Bus1=1_128  Bus2=1_129  Length=10   units=m Linecode=Line_95
New Line.MVLateral1.130 Bus1=1_129  Bus2=1_130  Length=10   units=m Linecode=Line_95
New Line.MVLateral1.131 Bus1=1_130  Bus2=1_131  Length=10   units=m Linecode=Line_95
New Line.MVLateral1.132 Bus1=1_131  Bus2=1_132  Length=10   units=m Linecode=Line_95
New Line.MVLateral1.133 Bus1=1_132  Bus2=1_133  Length=10   units=m Linecode=Line_95
New Line.MVLateral1.134 Bus1=1_133  Bus2=1_134  Length=10   units=m Linecode=Line_95
New Line.MVLateral1.135 Bus1=1_134  Bus2=1_135  Length=10   units=m Linecode=Line_95
New Line.MVLateral1.136 Bus1=1_135  Bus2=1_136  Length=10   units=m Linecode=Line_95
                        
New Line.MVLateral1.137 Bus1=1_136  Bus2=1_137  Length=10   units=m Linecode=Line_95
New Line.MVLateral1.138 Bus1=1_137  Bus2=1_138  Length=10   units=m Linecode=Line_95
New Line.MVLateral1.139 Bus1=1_138  Bus2=1_139  Length=10   units=m Linecode=Line_95
New Line.MVLateral1.140 Bus1=1_139  Bus2=1_140  Length=10   units=m Linecode=Line_95
New Line.MVLateral1.141 Bus1=1_140  Bus2=1_141  Length=10   units=m Linecode=Line_95
New Line.MVLateral1.142 Bus1=1_141  Bus2=1_142  Length=10   units=m Linecode=Line_95
New Line.MVLateral1.143 Bus1=1_142  Bus2=1_143  Length=10   units=m Linecode=Line_95
New Line.MVLateral1.144 Bus1=1_143  Bus2=1_144  Length=10   units=m Linecode=Line_95
                        
New Line.MVLateral1.145 Bus1=1_144  Bus2=1_145  Length=10   units=m Linecode=Line_95
New Line.MVLateral1.146 Bus1=1_145  Bus2=1_146  Length=10   units=m Linecode=Line_95
New Line.MVLateral1.147 Bus1=1_146  Bus2=1_147  Length=10   units=m Linecode=Line_95
New Line.MVLateral1.148 Bus1=1_147  Bus2=1_148  Length=10   units=m Linecode=Line_95
New Line.MVLateral1.149 Bus1=1_148  Bus2=1_149  Length=10   units=m Linecode=Line_95
New Line.MVLateral1.150 Bus1=1_149  Bus2=1_150  Length=10   units=m Linecode=Line_95
New Line.MVLateral1.151 Bus1=1_150  Bus2=1_151  Length=10   units=m Linecode=Line_95
New Line.MVLateral1.152 Bus1=1_151  Bus2=1_152  Length=10   units=m Linecode=Line_95
New Line.MVLateral1.153 Bus1=1_152  Bus2=1_153  Length=10   units=m Linecode=Line_95
New Line.MVLateral1.154 Bus1=1_153  Bus2=1_154  Length=10   units=m Linecode=Line_95
New Line.MVLateral1.155 Bus1=1_154  Bus2=1_155  Length=10   units=m Linecode=Line_95
New Line.MVLateral1.156 Bus1=1_155  Bus2=1_156  Length=10   units=m Linecode=Line_95
New Line.MVLateral1.157 Bus1=1_156  Bus2=1_157  Length=10   units=m Linecode=Line_95
New Line.MVLateral1.158 Bus1=1_157  Bus2=1_158  Length=10   units=m Linecode=Line_95
New Line.MVLateral1.159 Bus1=1_158  Bus2=1_159  Length=10   units=m Linecode=Line_95
New Line.MVLateral1.160 Bus1=1_159  Bus2=1_160  Length=10   units=m Linecode=Line_95
New Line.MVLateral1.161 Bus1=1_160  Bus2=1_161  Length=10   units=m Linecode=Line_95
New Line.MVLateral1.162 Bus1=1_161  Bus2=1_162  Length=10   units=m Linecode=Line_95
New Line.MVLateral1.163 Bus1=1_162  Bus2=1_163  Length=10   units=m Linecode=Line_95
New Line.MVLateral1.164 Bus1=1_163  Bus2=1_164  Length=10   units=m Linecode=Line_95
New Line.MVLateral1.165 Bus1=1_164  Bus2=1_165  Length=10   units=m Linecode=Line_95
New Line.MVLateral1.166 Bus1=1_165  Bus2=1_166  Length=10   units=m Linecode=Line_95
New Line.MVLateral1.167 Bus1=1_166  Bus2=1_167  Length=10   units=m Linecode=Line_95
New Line.MVLateral1.168 Bus1=1_167  Bus2=1_168  Length=10   units=m Linecode=Line_95
New Line.MVLateral1.169 Bus1=1_168  Bus2=1_169  Length=10   units=m Linecode=Line_95
New Line.MVLateral1.170 Bus1=1_169  Bus2=1_170  Length=10   units=m Linecode=Line_95
                        
New Line.MVLateral1.171 Bus1=1_170  Bus2=1_171  Length=10   units=m Linecode=Line_95
New Line.MVLateral1.172 Bus1=1_171  Bus2=1_172  Length=10   units=m Linecode=Line_95
New Line.MVLateral1.173 Bus1=1_172  Bus2=1_173  Length=10   units=m Linecode=Line_95
New Line.MVLateral1.174 Bus1=1_173  Bus2=1_174  Length=10   units=m Linecode=Line_95
New Line.MVLateral1.175 Bus1=1_174  Bus2=1_175  Length=10   units=m Linecode=Line_95
New Line.MVLateral1.176 Bus1=1_175  Bus2=1_176  Length=10   units=m Linecode=Line_95
New Line.MVLateral1.177 Bus1=1_176  Bus2=1_177  Length=10   units=m Linecode=Line_95
New Line.MVLateral1.178 Bus1=1_177  Bus2=1_178  Length=10   units=m Linecode=Line_95
New Line.MVLateral1.179 Bus1=1_178  Bus2=1_179  Length=10   units=m Linecode=Line_95
New Line.MVLateral1.180 Bus1=1_179  Bus2=1_180  Length=10   units=m Linecode=Line_95
New Line.MVLateral1.181 Bus1=1_180  Bus2=1_181  Length=10   units=m Linecode=Line_95
New Line.MVLateral1.182 Bus1=1_181  Bus2=1_182  Length=10   units=m Linecode=Line_95
New Line.MVLateral1.183 Bus1=1_182  Bus2=1_183  Length=10   units=m Linecode=Line_95
New Line.MVLateral1.184 Bus1=1_183  Bus2=1_184  Length=10   units=m Linecode=Line_95
New Line.MVLateral1.185 Bus1=1_184  Bus2=1_185  Length=10   units=m Linecode=Line_95
New Line.MVLateral1.186 Bus1=1_185  Bus2=1_186  Length=10   units=m Linecode=Line_95
New Line.MVLateral1.187 Bus1=1_186  Bus2=1_187  Length=10   units=m Linecode=Line_95
New Line.MVLateral1.188 Bus1=1_187  Bus2=1_188  Length=10   units=m Linecode=Line_95
New Line.MVLateral1.189 Bus1=1_188  Bus2=1_189  Length=10   units=m Linecode=Line_95
New Line.MVLateral1.190 Bus1=1_189  Bus2=1_190  Length=10   units=m Linecode=Line_95
New Line.MVLateral1.191 Bus1=1_190  Bus2=1_191  Length=10   units=m Linecode=Line_95
New Line.MVLateral1.192 Bus1=1_191  Bus2=1_192  Length=10   units=m Linecode=Line_95
New Line.MVLateral1.193 Bus1=1_192  Bus2=1_193  Length=10   units=m Linecode=Line_95
New Line.MVLateral1.194 Bus1=1_193  Bus2=1_194  Length=10   units=m Linecode=Line_95
New Line.MVLateral1.195 Bus1=1_194  Bus2=1_195  Length=10   units=m Linecode=Line_95
New Line.MVLateral1.196 Bus1=1_195  Bus2=1_196  Length=10   units=m Linecode=Line_95
New Line.MVLateral1.197 Bus1=1_196  Bus2=1_197  Length=10   units=m Linecode=Line_95
New Line.MVLateral1.198 Bus1=1_197  Bus2=1_198  Length=10   units=m Linecode=Line_95
New Line.MVLateral1.199 Bus1=1_198  Bus2=1_199  Length=10   units=m Linecode=Line_95
New Line.MVLateral1.200 Bus1=1_199  Bus2=1_200  Length=10   units=m Linecode=Line_95
New Line.MVLateral1.201 Bus1=1_200  Bus2=1_201  Length=10   units=m Linecode=Line_95
New Line.MVLateral1.202 Bus1=1_201  Bus2=1_202  Length=10   units=m Linecode=Line_95
New Line.MVLateral1.203 Bus1=1_202  Bus2=1_203  Length=10   units=m Linecode=Line_95
New Line.MVLateral1.204 Bus1=1_203  Bus2=1_204  Length=10   units=m Linecode=Line_95
New Line.MVLateral1.205 Bus1=1_204  Bus2=1_205  Length=10   units=m Linecode=Line_95
New Line.MVLateral1.206 Bus1=1_205  Bus2=1_206  Length=10   units=m Linecode=Line_95
New Line.MVLateral1.207 Bus1=1_206  Bus2=1_207  Length=10   units=m Linecode=Line_95
New Line.MVLateral1.208 Bus1=1_207  Bus2=1_208  Length=10   units=m Linecode=Line_95
New Line.MVLateral1.209 Bus1=1_208  Bus2=1_209  Length=10   units=m Linecode=Line_95
New Line.MVLateral1.210 Bus1=1_209  Bus2=1_210  Length=10   units=m Linecode=Line_95
New Line.MVLateral1.211 Bus1=1_210  Bus2=1_211  Length=10   units=m Linecode=Line_95
New Line.MVLateral1.212 Bus1=1_211  Bus2=1_212  Length=10   units=m Linecode=Line_95
New Line.MVLateral1.213 Bus1=1_212  Bus2=1_213  Length=10   units=m Linecode=Line_95
New Line.MVLateral1.214 Bus1=1_213  Bus2=1_214  Length=10   units=m Linecode=Line_95
New Line.MVLateral1.215 Bus1=1_214  Bus2=1_215  Length=10   units=m Linecode=Line_95
New Line.MVLateral1_end_1 Bus1=1_215 Bus2=1_216 units=m Linecode=Line_95 Length=10

                        
New Line.MVFeeder1.217  Bus1=1_45   Bus2=1_217  Length=10   units=m Linecode=Line_185
New Line.MVFeeder1.218  Bus1=1_217  Bus2=1_218  Length=10   units=m Linecode=Line_185
New Line.MVFeeder1.219  Bus1=1_218  Bus2=1_219  Length=10   units=m Linecode=Line_185
New Line.MVFeeder1.220  Bus1=1_219  Bus2=1_220  Length=10   units=m Linecode=Line_185
New Line.MVFeeder1.221  Bus1=1_220  Bus2=1_221  Length=10   units=m Linecode=Line_185
New Line.MVFeeder1.222  Bus1=1_221  Bus2=1_222  Length=10   units=m Linecode=Line_185
New Line.MVFeeder1.223  Bus1=1_222  Bus2=1_223  Length=10   units=m Linecode=Line_185
New Line.MVFeeder1.224  Bus1=1_223  Bus2=1_224  Length=10   units=m Linecode=Line_185
New Line.MVFeeder1.225  Bus1=1_224  Bus2=1_225  Length=10   units=m Linecode=Line_185
New Line.MVFeeder1.226  Bus1=1_225  Bus2=1_226  Length=10   units=m Linecode=Line_185
New Line.MVFeeder1.227  Bus1=1_226  Bus2=1_227  Length=10   units=m Linecode=Line_185
New Line.MVFeeder1.228  Bus1=1_227  Bus2=1_228  Length=10   units=m Linecode=Line_185
New Line.MVFeeder1.229  Bus1=1_228  Bus2=1_229  Length=10   units=m Linecode=Line_185
New Line.MVFeeder1.230  Bus1=1_229  Bus2=1_230  Length=10   units=m Linecode=Line_185
New Line.MVFeeder1.231  Bus1=1_230  Bus2=1_231  Length=10   units=m Linecode=Line_185
New Line.MVFeeder1.232  Bus1=1_231  Bus2=1_232  Length=10   units=m Linecode=Line_185
New Line.MVFeeder1.233  Bus1=1_232  Bus2=1_233  Length=10   units=m Linecode=Line_185
New Line.MVFeeder1.234  Bus1=1_233  Bus2=1_234  Length=10   units=m Linecode=Line_185
New Line.MVFeeder1.235  Bus1=1_234  Bus2=1_235  Length=10   units=m Linecode=Line_185
New Line.MVFeeder1.236  Bus1=1_235  Bus2=1_236  Length=10   units=m Linecode=Line_185
New Line.MVFeeder1.237  Bus1=1_236  Bus2=1_237  Length=10   units=m Linecode=Line_185
New Line.MVFeeder1.238  Bus1=1_237  Bus2=1_238  Length=10   units=m Linecode=Line_185
New Line.MVFeeder1.239  Bus1=1_238  Bus2=1_239  Length=10   units=m Linecode=Line_185
New Line.MVFeeder1.240  Bus1=1_239  Bus2=1_240  Length=10   units=m Linecode=Line_185
New Line.MVFeeder1.241  Bus1=1_240  Bus2=1_241  Length=10   units=m Linecode=Line_185
New Line.MVFeeder1.242  Bus1=1_241  Bus2=1_242  Length=10   units=m Linecode=Line_185
New Line.MVFeeder1.243  Bus1=1_242  Bus2=1_243  Length=10   units=m Linecode=Line_185
New Line.MVFeeder1.244  Bus1=1_243  Bus2=1_244  Length=10   units=m Linecode=Line_185
New Line.MVFeeder1.245  Bus1=1_244  Bus2=1_245  Length=10   units=m Linecode=Line_185
New Line.MVFeeder1.246  Bus1=1_245  Bus2=1_246  Length=10   units=m Linecode=Line_185
New Line.MVFeeder1.247  Bus1=1_246  Bus2=1_247  Length=10   units=m Linecode=Line_185
New Line.MVFeeder1.248  Bus1=1_247  Bus2=1_248  Length=10   units=m Linecode=Line_185
New Line.MVFeeder1.249  Bus1=1_248  Bus2=1_249  Length=10   units=m Linecode=Line_185
New Line.MVFeeder1.250  Bus1=1_249  Bus2=1_250  Length=10   units=m Linecode=Line_185
New Line.MVFeeder1.251  Bus1=1_250  Bus2=1_251  Length=10   units=m Linecode=Line_185
New Line.MVFeeder1.252  Bus1=1_251  Bus2=1_252  Length=10   units=m Linecode=Line_185
New Line.MVFeeder1.253  Bus1=1_252  Bus2=1_253  Length=10   units=m Linecode=Line_185
New Line.MVFeeder1.254  Bus1=1_253  Bus2=1_254  Length=10   units=m Linecode=Line_185
New Line.MVFeeder1.255  Bus1=1_254  Bus2=1_255  Length=10   units=m Linecode=Line_185
New Line.MVFeeder1.256  Bus1=1_255  Bus2=1_256  Length=10   units=m Linecode=Line_185
New Line.MVFeeder1.257  Bus1=1_256  Bus2=1_257  Length=10   units=m Linecode=Line_185
New Line.MVFeeder1.258  Bus1=1_257  Bus2=1_258  Length=10   units=m Linecode=Line_185
New Line.MVFeeder1.259  Bus1=1_258  Bus2=1_259  Length=10   units=m Linecode=Line_185
New Line.MVFeeder1.260  Bus1=1_259  Bus2=1_260  Length=10   units=m Linecode=Line_185
New Line.MVFeeder1.261  Bus1=1_260  Bus2=1_261  Length=10   units=m Linecode=Line_185
New Line.MVFeeder1.262  Bus1=1_261  Bus2=1_262  Length=10   units=m Linecode=Line_185
New Line.MVFeeder1.263  Bus1=1_262  Bus2=1_263  Length=10   units=m Linecode=Line_185
New Line.MVFeeder1.264  Bus1=1_263  Bus2=1_264  Length=10   units=m Linecode=Line_185
New Line.MVFeeder1.265  Bus1=1_264  Bus2=1_265  Length=10   units=m Linecode=Line_185
New Line.MVFeeder1.266  Bus1=1_265  Bus2=1_266  Length=10   units=m Linecode=Line_185
New Line.MVFeeder1.267  Bus1=1_266  Bus2=1_267  Length=10   units=m Linecode=Line_185
New Line.MVFeeder1.268  Bus1=1_267  Bus2=1_268  Length=10   units=m Linecode=Line_185
New Line.MVFeeder1.269  Bus1=1_268  Bus2=1_269  Length=10   units=m Linecode=Line_185
New Line.MVFeeder1.270  Bus1=1_269  Bus2=1_270  Length=10   units=m Linecode=Line_185
New Line.MVFeeder1.271  Bus1=1_270  Bus2=1_271  Length=10   units=m Linecode=Line_185
New Line.MVFeeder1.272  Bus1=1_271  Bus2=1_272  Length=10   units=m Linecode=Line_185
New Line.MVFeeder1.273  Bus1=1_272  Bus2=1_273  Length=10   units=m Linecode=Line_185
New Line.MVFeeder1.274  Bus1=1_273  Bus2=1_274  Length=10   units=m Linecode=Line_185
New Line.MVFeeder1.275  Bus1=1_274  Bus2=1_275  Length=10   units=m Linecode=Line_185
New Line.MVFeeder1.276  Bus1=1_275  Bus2=1_276  Length=10   units=m Linecode=Line_185
New Line.MVFeeder1.277  Bus1=1_276  Bus2=1_277  Length=10   units=m Linecode=Line_185
New Line.MVFeeder1.278  Bus1=1_277  Bus2=1_278  Length=10   units=m Linecode=Line_185
New Line.MVFeeder1.279  Bus1=1_278  Bus2=1_279  Length=10   units=m Linecode=Line_185
New Line.MVFeeder1.280  Bus1=1_279  Bus2=1_280  Length=10   units=m Linecode=Line_185
New Line.MVFeeder1.281  Bus1=1_280  Bus2=1_281  Length=10   units=m Linecode=Line_185
New Line.MVFeeder1.282  Bus1=1_281  Bus2=1_282  Length=10   units=m Linecode=Line_185
New Line.MVFeeder1.283  Bus1=1_282  Bus2=1_283  Length=10   units=m Linecode=Line_185
New Line.MVFeeder1.284  Bus1=1_283  Bus2=1_284  Length=10   units=m Linecode=Line_185
New Line.MVFeeder1.285  Bus1=1_284  Bus2=1_285  Length=10   units=m Linecode=Line_185
New Line.MVFeeder1.286  Bus1=1_285  Bus2=1_286  Length=10   units=m Linecode=Line_185
New Line.MVFeeder1.287  Bus1=1_286  Bus2=1_287  Length=10   units=m Linecode=Line_185
New Line.MVFeeder1.288  Bus1=1_287  Bus2=1_288  Length=10   units=m Linecode=Line_185
New Line.MVFeeder1.289  Bus1=1_288  Bus2=1_289  Length=10   units=m Linecode=Line_185
New Line.MVFeeder1.290  Bus1=1_289  Bus2=1_290  Length=10   units=m Linecode=Line_185
New Line.MVFeeder1.291  Bus1=1_290  Bus2=1_291  Length=10   units=m Linecode=Line_185
New Line.MVFeeder1.292  Bus1=1_291  Bus2=1_292  Length=10   units=m Linecode=Line_185
New Line.MVFeeder1.293  Bus1=1_292  Bus2=1_293  Length=10   units=m Linecode=Line_185
New Line.MVFeeder1.294  Bus1=1_293  Bus2=1_294  Length=10   units=m Linecode=Line_185
New Line.MVFeeder1.295  Bus1=1_294  Bus2=1_295  Length=10   units=m Linecode=Line_185
New Line.MVFeeder1.296  Bus1=1_295  Bus2=1_296  Length=10   units=m Linecode=Line_185
New Line.MVFeeder1.297  Bus1=1_296  Bus2=1_297  Length=10   units=m Linecode=Line_185
New Line.MVFeeder1.298  Bus1=1_297  Bus2=1_298  Length=10   units=m Linecode=Line_185
New Line.MVFeeder1.299  Bus1=1_298  Bus2=1_299  Length=10   units=m Linecode=Line_185
New Line.MVFeeder1.300  Bus1=1_299  Bus2=1_300  Length=10   units=m Linecode=Line_185
New Line.MVFeeder1.301  Bus1=1_300  Bus2=1_301  Length=10   units=m Linecode=Line_185
New Line.MVFeeder1.302  Bus1=1_301  Bus2=1_302  Length=10   units=m Linecode=Line_185
New Line.MVFeeder1.303  Bus1=1_302  Bus2=1_303  Length=10   units=m Linecode=Line_185
New Line.MVFeeder1.304  Bus1=1_303  Bus2=1_304  Length=10   units=m Linecode=Line_185
New Line.MVFeeder1.305  Bus1=1_304  Bus2=1_305  Length=10   units=m Linecode=Line_185
                        
                        
New Line.MVLateral1_start_2 Bus1=1_304  Bus2=1_306  Length=10   units=m Linecode=Line_95
New Line.MVLateral1.307 Bus1=1_306  Bus2=1_307  Length=10   units=m Linecode=Line_95
New Line.MVLateral1.308 Bus1=1_307  Bus2=1_308  Length=10   units=m Linecode=Line_95
New Line.MVLateral1.309 Bus1=1_308  Bus2=1_309  Length=10   units=m Linecode=Line_95
New Line.MVLateral1.310 Bus1=1_309  Bus2=1_310  Length=10   units=m Linecode=Line_95
New Line.MVLateral1.311 Bus1=1_310  Bus2=1_311  Length=10   units=m Linecode=Line_95
New Line.MVLateral1.312 Bus1=1_311  Bus2=1_312  Length=10   units=m Linecode=Line_95
New Line.MVLateral1.313 Bus1=1_312  Bus2=1_313  Length=10   units=m Linecode=Line_95
New Line.MVLateral1.314 Bus1=1_313  Bus2=1_314  Length=10   units=m Linecode=Line_95
New Line.MVLateral1.315 Bus1=1_314  Bus2=1_315  Length=10   units=m Linecode=Line_95
New Line.MVLateral1.316 Bus1=1_315  Bus2=1_316  Length=10   units=m Linecode=Line_95
New Line.MVLateral1.317 Bus1=1_316  Bus2=1_317  Length=10   units=m Linecode=Line_95
New Line.MVLateral1.318 Bus1=1_317  Bus2=1_318  Length=10   units=m Linecode=Line_95
New Line.MVLateral1.319 Bus1=1_318  Bus2=1_319  Length=10   units=m Linecode=Line_95
New Line.MVLateral1.320 Bus1=1_319  Bus2=1_320  Length=10   units=m Linecode=Line_95
New Line.MVLateral1.321 Bus1=1_320  Bus2=1_321  Length=10   units=m Linecode=Line_95
New Line.MVLateral1.322 Bus1=1_321  Bus2=1_322  Length=10   units=m Linecode=Line_95
New Line.MVLateral1.323 Bus1=1_322  Bus2=1_323  Length=10   units=m Linecode=Line_95
New Line.MVLateral1.324 Bus1=1_323  Bus2=1_324  Length=10   units=m Linecode=Line_95
New Line.MVLateral1.325 Bus1=1_324  Bus2=1_325  Length=10   units=m Linecode=Line_95
New Line.MVLateral1.326 Bus1=1_325  Bus2=1_326  Length=10   units=m Linecode=Line_95
New Line.MVLateral1.327 Bus1=1_326  Bus2=1_327  Length=10   units=m Linecode=Line_95
New Line.MVLateral1.328 Bus1=1_327  Bus2=1_328  Length=10   units=m Linecode=Line_95
New Line.MVLateral1.329 Bus1=1_328  Bus2=1_329  Length=10   units=m Linecode=Line_95
New Line.MVLateral1.330 Bus1=1_329  Bus2=1_330  Length=10   units=m Linecode=Line_95
New Line.MVLateral1.331 Bus1=1_330  Bus2=1_331  Length=10   units=m Linecode=Line_95
New Line.MVLateral1.332 Bus1=1_331  Bus2=1_332  Length=10   units=m Linecode=Line_95
New Line.MVLateral1.333 Bus1=1_332  Bus2=1_333  Length=10   units=m Linecode=Line_95
New Line.MVLateral1.334 Bus1=1_333  Bus2=1_334  Length=10   units=m Linecode=Line_95
New Line.MVLateral1.335 Bus1=1_334  Bus2=1_335  Length=10   units=m Linecode=Line_95
New Line.MVLateral1.336 Bus1=1_335  Bus2=1_336  Length=10   units=m Linecode=Line_95
New Line.MVLateral1.337 Bus1=1_336  Bus2=1_337  Length=10   units=m Linecode=Line_95
New Line.MVLateral1.338 Bus1=1_337  Bus2=1_338  Length=10   units=m Linecode=Line_95
New Line.MVLateral1.339 Bus1=1_338  Bus2=1_339  Length=10   units=m Linecode=Line_95
New Line.MVLateral1.340 Bus1=1_339  Bus2=1_340  Length=10   units=m Linecode=Line_95
New Line.MVLateral1.341 Bus1=1_340  Bus2=1_341  Length=10   units=m Linecode=Line_95
New Line.MVLateral1.342 Bus1=1_341  Bus2=1_342  Length=10   units=m Linecode=Line_95
New Line.MVLateral1.343 Bus1=1_342  Bus2=1_343  Length=10   units=m Linecode=Line_95
New Line.MVLateral1.344 Bus1=1_343  Bus2=1_344  Length=10   units=m Linecode=Line_95
New Line.MVLateral1.345 Bus1=1_344  Bus2=1_345  Length=10   units=m Linecode=Line_95
New Line.MVLateral1.346 Bus1=1_345  Bus2=1_346  Length=10   units=m Linecode=Line_95
New Line.MVLateral1.347 Bus1=1_346  Bus2=1_347  Length=10   units=m Linecode=Line_95
New Line.MVLateral1.348 Bus1=1_347  Bus2=1_348  Length=10   units=m Linecode=Line_95
New Line.MVLateral1.349 Bus1=1_348  Bus2=1_349  Length=10   units=m Linecode=Line_95
New Line.MVLateral1.350 Bus1=1_349  Bus2=1_350  Length=10   units=m Linecode=Line_95
New Line.MVLateral1.351 Bus1=1_350  Bus2=1_351  Length=10   units=m Linecode=Line_95
New Line.MVLateral1.352 Bus1=1_351  Bus2=1_352  Length=10   units=m Linecode=Line_95
New Line.MVLateral1.353 Bus1=1_352  Bus2=1_353  Length=10   units=m Linecode=Line_95
New Line.MVLateral1.354 Bus1=1_353  Bus2=1_354  Length=10   units=m Linecode=Line_95
New Line.MVLateral1.355 Bus1=1_354  Bus2=1_355  Length=10   units=m Linecode=Line_95
New Line.MVLateral1.356 Bus1=1_355  Bus2=1_356  Length=10   units=m Linecode=Line_95
New Line.MVLateral1.357 Bus1=1_356  Bus2=1_357  Length=10   units=m Linecode=Line_95
New Line.MVLateral1.358 Bus1=1_357  Bus2=1_358  Length=10   units=m Linecode=Line_95
New Line.MVLateral1.359 Bus1=1_358  Bus2=1_359  Length=10   units=m Linecode=Line_95
New Line.MVLateral1.360 Bus1=1_359  Bus2=1_360  Length=10   units=m Linecode=Line_95
New Line.MVLateral1.361 Bus1=1_360  Bus2=1_361  Length=10   units=m Linecode=Line_95
New Line.MVLateral1.362 Bus1=1_361  Bus2=1_362  Length=10   units=m Linecode=Line_95
New Line.MVLateral1.363 Bus1=1_362  Bus2=1_363  Length=10   units=m Linecode=Line_95
New Line.MVLateral1.364 Bus1=1_363  Bus2=1_364  Length=10   units=m Linecode=Line_95
New Line.MVLateral1.365 Bus1=1_364  Bus2=1_365  Length=10   units=m Linecode=Line_95
New Line.MVLateral1.366 Bus1=1_365  Bus2=1_366  Length=10   units=m Linecode=Line_95
New Line.MVLateral1.367 Bus1=1_366  Bus2=1_367  Length=10   units=m Linecode=Line_95
New Line.MVLateral1.368 Bus1=1_367  Bus2=1_368  Length=10   units=m Linecode=Line_95
New Line.MVLateral1.369 Bus1=1_368  Bus2=1_369  Length=10   units=m Linecode=Line_95
New Line.MVLateral1.370 Bus1=1_369  Bus2=1_370  Length=10   units=m Linecode=Line_95
New Line.MVLateral1.371 Bus1=1_370  Bus2=1_371  Length=10   units=m Linecode=Line_95
New Line.MVLateral1.372 Bus1=1_371  Bus2=1_372  Length=10   units=m Linecode=Line_95
New Line.MVLateral1.373 Bus1=1_372  Bus2=1_373  Length=10   units=m Linecode=Line_95
New Line.MVLateral1.374 Bus1=1_373  Bus2=1_374  Length=10   units=m Linecode=Line_95
New Line.MVLateral1.375 Bus1=1_374  Bus2=1_375  Length=10   units=m Linecode=Line_95
New Line.MVLateral1.376 Bus1=1_375  Bus2=1_376  Length=10   units=m Linecode=Line_95
New Line.MVLateral1.377 Bus1=1_376  Bus2=1_377  Length=10   units=m Linecode=Line_95
New Line.MVLateral1.378 Bus1=1_377  Bus2=1_378  Length=10   units=m Linecode=Line_95
New Line.MVLateral1.379 Bus1=1_378  Bus2=1_379  Length=10   units=m Linecode=Line_95
New Line.MVLateral1.380 Bus1=1_379  Bus2=1_380  Length=10   units=m Linecode=Line_95
New Line.MVLateral1.381 Bus1=1_380  Bus2=1_381  Length=10   units=m Linecode=Line_95
New Line.MVLateral1.382 Bus1=1_381  Bus2=1_382  Length=10   units=m Linecode=Line_95
New Line.MVLateral1.383 Bus1=1_382  Bus2=1_383  Length=10   units=m Linecode=Line_95
New Line.MVLateral1.384 Bus1=1_383  Bus2=1_384  Length=10   units=m Linecode=Line_95
New Line.MVLateral1.385 Bus1=1_384  Bus2=1_385  Length=10   units=m Linecode=Line_95
New Line.MVLateral1.386 Bus1=1_385  Bus2=1_386  Length=10   units=m Linecode=Line_95
New Line.MVLateral1.387 Bus1=1_386  Bus2=1_387  Length=10   units=m Linecode=Line_95
New Line.MVLateral1.388 Bus1=1_387  Bus2=1_388  Length=10   units=m Linecode=Line_95
New Line.MVLateral1.389 Bus1=1_388  Bus2=1_389  Length=10   units=m Linecode=Line_95
New Line.MVLateral1.390 Bus1=1_389  Bus2=1_390  Length=10   units=m Linecode=Line_95
New Line.MVLateral1.391 Bus1=1_390  Bus2=1_391  Length=10   units=m Linecode=Line_95
New Line.MVLateral1.392 Bus1=1_391  Bus2=1_392  Length=10   units=m Linecode=Line_95
New Line.MVLateral1.393 Bus1=1_392  Bus2=1_393  Length=10   units=m Linecode=Line_95
New Line.MVLateral1.394 Bus1=1_393  Bus2=1_394  Length=10   units=m Linecode=Line_95
New Line.MVLateral1.395 Bus1=1_394  Bus2=1_395  Length=10   units=m Linecode=Line_95
New Line.MVLateral1.396 Bus1=1_395  Bus2=1_396  Length=10   units=m Linecode=Line_95
New Line.MVLateral1.397 Bus1=1_396  Bus2=1_397  Length=10   units=m Linecode=Line_95
New Line.MVLateral1.398 Bus1=1_397  Bus2=1_398  Length=10   units=m Linecode=Line_95
New Line.MVLateral1.399 Bus1=1_398  Bus2=1_399  Length=10   units=m Linecode=Line_95
New Line.MVLateral1.400 Bus1=1_399  Bus2=1_400  Length=10   units=m Linecode=Line_95
New Line.MVLateral1.401 Bus1=1_400  Bus2=1_401  Length=10   units=m Linecode=Line_95
New Line.MVLateral1.402 Bus1=1_401  Bus2=1_402  Length=10   units=m Linecode=Line_95
New Line.MVLateral1.403 Bus1=1_402  Bus2=1_403  Length=10   units=m Linecode=Line_95
New Line.MVLateral1.404 Bus1=1_403  Bus2=1_404  Length=10   units=m Linecode=Line_95
New Line.MVLateral1.405 Bus1=1_404  Bus2=1_405  Length=10   units=m Linecode=Line_95
New Line.MVLateral1.406 Bus1=1_405  Bus2=1_406  Length=10   units=m Linecode=Line_95
New Line.MVLateral1.407 Bus1=1_406  Bus2=1_407  Length=10   units=m Linecode=Line_95
New Line.MVLateral1.408 Bus1=1_407  Bus2=1_408  Length=10   units=m Linecode=Line_95
New Line.MVLateral1.409 Bus1=1_408  Bus2=1_409  Length=10   units=m Linecode=Line_95
New Line.MVLateral1.410 Bus1=1_409  Bus2=1_410  Length=10   units=m Linecode=Line_95
New Line.MVLateral1.411 Bus1=1_410  Bus2=1_411  Length=10   units=m Linecode=Line_95
New Line.MVLateral1.412 Bus1=1_411  Bus2=1_412  Length=10   units=m Linecode=Line_95
New Line.MVLateral1.413 Bus1=1_412  Bus2=1_413  Length=10   units=m Linecode=Line_95
New Line.MVLateral1.414 Bus1=1_413  Bus2=1_414  Length=10   units=m Linecode=Line_95
New Line.MVLateral1.415 Bus1=1_414  Bus2=1_415  Length=10   units=m Linecode=Line_95
New Line.MVLateral1.416 Bus1=1_415  Bus2=1_416  Length=10   units=m Linecode=Line_95
New Line.MVLateral1.417 Bus1=1_416  Bus2=1_417  Length=10   units=m Linecode=Line_95
New Line.MVLateral1.418 Bus1=1_417  Bus2=1_418  Length=10   units=m Linecode=Line_95
New Line.MVLateral1.419 Bus1=1_418  Bus2=1_419  Length=10   units=m Linecode=Line_95
New Line.MVLateral1.420 Bus1=1_419  Bus2=1_420  Length=10   units=m Linecode=Line_95
New Line.MVLateral1.421 Bus1=1_420  Bus2=1_421  Length=10   units=m Linecode=Line_95
New Line.MVLateral1.422 Bus1=1_421  Bus2=1_422  Length=10   units=m Linecode=Line_95
New Line.MVLateral1.423 Bus1=1_422  Bus2=1_423  Length=10   units=m Linecode=Line_95
New Line.MVLateral1.424 Bus1=1_423  Bus2=1_424  Length=10   units=m Linecode=Line_95
New Line.MVLateral1.425 Bus1=1_424  Bus2=1_425  Length=10   units=m Linecode=Line_95
New Line.MVLateral1.426 Bus1=1_425  Bus2=1_426  Length=10   units=m Linecode=Line_95
New Line.MVLateral1.427 Bus1=1_426  Bus2=1_427  Length=10   units=m Linecode=Line_95
New Line.MVLateral1.428 Bus1=1_427  Bus2=1_428  Length=10   units=m Linecode=Line_95
New Line.MVLateral1.429 Bus1=1_428  Bus2=1_429  Length=10   units=m Linecode=Line_95
New Line.MVLateral1.430 Bus1=1_429  Bus2=1_430  Length=10   units=m Linecode=Line_95
New Line.MVLateral1.431 Bus1=1_430  Bus2=1_431  Length=10   units=m Linecode=Line_95
New Line.MVLateral1.432 Bus1=1_431  Bus2=1_432  Length=10   units=m Linecode=Line_95
New Line.MVLateral1.433 Bus1=1_432  Bus2=1_433  Length=10   units=m Linecode=Line_95
New Line.MVLateral1.434 Bus1=1_433  Bus2=1_434  Length=10   units=m Linecode=Line_95
New Line.MVLateral1.435 Bus1=1_434  Bus2=1_435  Length=10   units=m Linecode=Line_95
New Line.MVLateral1.436 Bus1=1_435  Bus2=1_436  Length=10   units=m Linecode=Line_95
New Line.MVLateral1.437 Bus1=1_436  Bus2=1_437  Length=10   units=m Linecode=Line_95
New Line.MVLateral1.438 Bus1=1_437  Bus2=1_438  Length=10   units=m Linecode=Line_95
New Line.MVLateral1.439 Bus1=1_438  Bus2=1_439  Length=10   units=m Linecode=Line_95
New Line.MVLateral1.440 Bus1=1_439  Bus2=1_440  Length=10   units=m Linecode=Line_95
New Line.MVLateral1.441 Bus1=1_440  Bus2=1_441  Length=10   units=m Linecode=Line_95
New Line.MVLateral1.442 Bus1=1_441  Bus2=1_442  Length=10   units=m Linecode=Line_95
New Line.MVLateral1.443 Bus1=1_442  Bus2=1_443  Length=10   units=m Linecode=Line_95
New Line.MVLateral1.444 Bus1=1_443  Bus2=1_444  Length=10   units=m Linecode=Line_95
New Line.MVLateral1.445 Bus1=1_444  Bus2=1_445  Length=10   units=m Linecode=Line_95
New Line.MVLateral1.446 Bus1=1_445  Bus2=1_446  Length=10   units=m Linecode=Line_95
New Line.MVLateral1.447 Bus1=1_446  Bus2=1_447  Length=10   units=m Linecode=Line_95
New Line.MVLateral1.448 Bus1=1_447  Bus2=1_448  Length=10   units=m Linecode=Line_95
New Line.MVLateral1.449 Bus1=1_448  Bus2=1_449  Length=10   units=m Linecode=Line_95
New Line.MVLateral1.450 Bus1=1_449  Bus2=1_450  Length=10   units=m Linecode=Line_95
New Line.MVLateral1.451 Bus1=1_450  Bus2=1_451  Length=10   units=m Linecode=Line_95
New Line.MVLateral1.452 Bus1=1_451  Bus2=1_452  Length=10   units=m Linecode=Line_95
New Line.MVLateral1.453 Bus1=1_452  Bus2=1_453  Length=10   units=m Linecode=Line_95
New Line.MVLateral1.454 Bus1=1_453  Bus2=1_454  Length=10   units=m Linecode=Line_95
New Line.MVLateral1.455 Bus1=1_454  Bus2=1_455  Length=10   units=m Linecode=Line_95
New Line.MVLateral1.456 Bus1=1_455  Bus2=1_456  Length=10   units=m Linecode=Line_95
New Line.MVLateral1.457 Bus1=1_456  Bus2=1_457  Length=10   units=m Linecode=Line_95
New Line.MVLateral1.458 Bus1=1_457  Bus2=1_458  Length=10   units=m Linecode=Line_95
New Line.MVLateral1.459 Bus1=1_458  Bus2=1_459  Length=10   units=m Linecode=Line_95
New Line.MVLateral1.460 Bus1=1_459  Bus2=1_460  Length=10   units=m Linecode=Line_95
New Line.MVLateral1.461 Bus1=1_460  Bus2=1_461  Length=10   units=m Linecode=Line_95
New Line.MVLateral1.462 Bus1=1_461  Bus2=1_462  Length=10   units=m Linecode=Line_95
New Line.MVLateral1.463 Bus1=1_462  Bus2=1_463  Length=10   units=m Linecode=Line_95
New Line.MVLateral1.464 Bus1=1_463  Bus2=1_464  Length=10   units=m Linecode=Line_95
New Line.MVLateral1.465 Bus1=1_464  Bus2=1_465  Length=10   units=m Linecode=Line_95
New Line.MVLateral1.466 Bus1=1_465  Bus2=1_466  Length=10   units=m Linecode=Line_95
New Line.MVLateral1.467 Bus1=1_466  Bus2=1_467  Length=10   units=m Linecode=Line_95
New Line.MVLateral1.468 Bus1=1_467  Bus2=1_468  Length=10   units=m Linecode=Line_95
New Line.MVLateral1.469 Bus1=1_468  Bus2=1_469  Length=10   units=m Linecode=Line_95
New Line.MVLateral1.470 Bus1=1_469  Bus2=1_470  Length=10   units=m Linecode=Line_95
New Line.MVLateral1.471 Bus1=1_470  Bus2=1_471  Length=10   units=m Linecode=Line_95
New Line.MVLateral1.472 Bus1=1_471  Bus2=1_472  Length=10   units=m Linecode=Line_95
New Line.MVLateral1.473 Bus1=1_472  Bus2=1_473  Length=10   units=m Linecode=Line_95
New Line.MVLateral1.474 Bus1=1_473  Bus2=1_474  Length=10   units=m Linecode=Line_95
New Line.MVLateral1.475 Bus1=1_474  Bus2=1_475  Length=10   units=m Linecode=Line_95
New Line.MVLateral1_end_2 Bus1=1_475 Bus2=1_476 units=m Linecode=Line_95 Length=10
                        
                        
New Line.MVFeeder1.477  Bus1=1_305  Bus2=1_477  Length=10   units=m Linecode=Line_185
New Line.MVFeeder1.478  Bus1=1_477  Bus2=1_478  Length=10   units=m Linecode=Line_185
New Line.MVFeeder1.479  Bus1=1_478  Bus2=1_479  Length=10   units=m Linecode=Line_185
New Line.MVFeeder1.480  Bus1=1_479  Bus2=1_480  Length=10   units=m Linecode=Line_185
New Line.MVFeeder1.481  Bus1=1_480  Bus2=1_481  Length=10   units=m Linecode=Line_185
New Line.MVFeeder1.482  Bus1=1_481  Bus2=1_482  Length=10   units=m Linecode=Line_185
New Line.MVFeeder1.483  Bus1=1_482  Bus2=1_483  Length=10   units=m Linecode=Line_185
New Line.MVFeeder1.484  Bus1=1_483  Bus2=1_484  Length=10   units=m Linecode=Line_185
New Line.MVFeeder1.485  Bus1=1_484  Bus2=1_485  Length=10   units=m Linecode=Line_185
New Line.MVFeeder1.486  Bus1=1_485  Bus2=1_486  Length=10   units=m Linecode=Line_185
New Line.MVFeeder1.487  Bus1=1_486  Bus2=1_487  Length=10   units=m Linecode=Line_185
New Line.MVFeeder1.488  Bus1=1_487  Bus2=1_488  Length=10   units=m Linecode=Line_185
New Line.MVFeeder1.489  Bus1=1_488  Bus2=1_489  Length=10   units=m Linecode=Line_185
New Line.MVFeeder1.490  Bus1=1_489  Bus2=1_490  Length=10   units=m Linecode=Line_185
New Line.MVFeeder1.491  Bus1=1_490  Bus2=1_491  Length=10   units=m Linecode=Line_185
New Line.MVFeeder1.492  Bus1=1_491  Bus2=1_492  Length=10   units=m Linecode=Line_185
New Line.MVFeeder1.493  Bus1=1_492  Bus2=1_493  Length=10   units=m Linecode=Line_185
New Line.MVFeeder1.494  Bus1=1_493  Bus2=1_494  Length=10   units=m Linecode=Line_185
New Line.MVFeeder1.495  Bus1=1_494  Bus2=1_495  Length=10   units=m Linecode=Line_185
New Line.MVFeeder1.496  Bus1=1_495  Bus2=1_496  Length=10   units=m Linecode=Line_185
New Line.MVFeeder1.497  Bus1=1_496  Bus2=1_497  Length=10   units=m Linecode=Line_185
New Line.MVFeeder1.498  Bus1=1_497  Bus2=1_498  Length=10   units=m Linecode=Line_185
New Line.MVFeeder1.499  Bus1=1_498  Bus2=1_499  Length=10   units=m Linecode=Line_185
New Line.MVFeeder1.500  Bus1=1_499  Bus2=1_500  Length=10   units=m Linecode=Line_185
New Line.MVFeeder1.501  Bus1=1_500  Bus2=1_501  Length=10   units=m Linecode=Line_185
New Line.MVFeeder1.502  Bus1=1_501  Bus2=1_502  Length=10   units=m Linecode=Line_185
New Line.MVFeeder1.503  Bus1=1_502  Bus2=1_503  Length=10   units=m Linecode=Line_185
New Line.MVFeeder1.504  Bus1=1_503  Bus2=1_504  Length=10   units=m Linecode=Line_185
New Line.MVFeeder1.505  Bus1=1_504  Bus2=1_505  Length=10   units=m Linecode=Line_185
New Line.MVFeeder1.506  Bus1=1_505  Bus2=1_506  Length=10   units=m Linecode=Line_185
New Line.MVFeeder1.507  Bus1=1_506  Bus2=1_507  Length=10   units=m Linecode=Line_185
New Line.MVFeeder1.508  Bus1=1_507  Bus2=1_508  Length=10   units=m Linecode=Line_185
New Line.MVFeeder1.509  Bus1=1_508  Bus2=1_509  Length=10   units=m Linecode=Line_185
New Line.MVFeeder1.510  Bus1=1_509  Bus2=1_510  Length=10   units=m Linecode=Line_185
New Line.MVFeeder1.511  Bus1=1_510  Bus2=1_511  Length=10   units=m Linecode=Line_185
New Line.MVFeeder1.512  Bus1=1_511  Bus2=1_512  Length=10   units=m Linecode=Line_185
New Line.MVFeeder1.513  Bus1=1_512  Bus2=1_513  Length=10   units=m Linecode=Line_185
New Line.MVFeeder1.514  Bus1=1_513  Bus2=1_514  Length=10   units=m Linecode=Line_185
New Line.MVFeeder1.515  Bus1=1_514  Bus2=1_515  Length=10   units=m Linecode=Line_185
New Line.MVFeeder1.516  Bus1=1_515  Bus2=1_516  Length=10   units=m Linecode=Line_185
New Line.MVFeeder1.517  Bus1=1_516  Bus2=1_517  Length=10   units=m Linecode=Line_185
New Line.MVFeeder1.518  Bus1=1_517  Bus2=1_518  Length=10   units=m Linecode=Line_185
New Line.MVFeeder1.519  Bus1=1_518  Bus2=1_519  Length=10   units=m Linecode=Line_185
New Line.MVFeeder1.520  Bus1=1_519  Bus2=1_520  Length=10   units=m Linecode=Line_185
New Line.MVFeeder1.521  Bus1=1_520  Bus2=1_521  Length=10   units=m Linecode=Line_185
New Line.MVFeeder1.522  Bus1=1_521  Bus2=1_522  Length=10   units=m Linecode=Line_185
New Line.MVFeeder1.523  Bus1=1_522  Bus2=1_523  Length=10   units=m Linecode=Line_185
New Line.MVFeeder1.524  Bus1=1_523  Bus2=1_524  Length=10   units=m Linecode=Line_185
New Line.MVFeeder1.525  Bus1=1_524  Bus2=1_525  Length=10   units=m Linecode=Line_185
New Line.MVFeeder1.526  Bus1=1_525  Bus2=1_526  Length=10   units=m Linecode=Line_185
New Line.MVFeeder1.527  Bus1=1_526  Bus2=1_527  Length=10   units=m Linecode=Line_185
New Line.MVFeeder1.528  Bus1=1_527  Bus2=1_528  Length=10   units=m Linecode=Line_185
New Line.MVFeeder1.529  Bus1=1_528  Bus2=1_529  Length=10   units=m Linecode=Line_185
New Line.MVFeeder1.530  Bus1=1_529  Bus2=1_530  Length=10   units=m Linecode=Line_185
New Line.MVFeeder1.531  Bus1=1_530  Bus2=1_531  Length=10   units=m Linecode=Line_185
New Line.MVFeeder1.532  Bus1=1_531  Bus2=1_532  Length=10   units=m Linecode=Line_185
New Line.MVFeeder1.533  Bus1=1_532  Bus2=1_533  Length=10   units=m Linecode=Line_185
New Line.MVFeeder1.534  Bus1=1_533  Bus2=1_534  Length=10   units=m Linecode=Line_185
New Line.MVFeeder1.535  Bus1=1_534  Bus2=1_535  Length=10   units=m Linecode=Line_185
New Line.MVFeeder1.536  Bus1=1_535  Bus2=1_536  Length=10   units=m Linecode=Line_185
New Line.MVFeeder1.537  Bus1=1_536  Bus2=1_537  Length=10   units=m Linecode=Line_185
New Line.MVFeeder1.538  Bus1=1_537  Bus2=1_538  Length=10   units=m Linecode=Line_185
New Line.MVFeeder1.539  Bus1=1_538  Bus2=1_539  Length=10   units=m Linecode=Line_185
New Line.MVFeeder1.540  Bus1=1_539  Bus2=1_540  Length=10   units=m Linecode=Line_185
New Line.MVFeeder1.541  Bus1=1_540  Bus2=1_541  Length=10   units=m Linecode=Line_185
New Line.MVFeeder1.542  Bus1=1_541  Bus2=1_542  Length=10   units=m Linecode=Line_185
New Line.MVFeeder1.543  Bus1=1_542  Bus2=1_543  Length=10   units=m Linecode=Line_185
New Line.MVFeeder1.544  Bus1=1_543  Bus2=1_544  Length=10   units=m Linecode=Line_185
New Line.MVFeeder1.545  Bus1=1_544  Bus2=1_545  Length=10   units=m Linecode=Line_185
New Line.MVFeeder1.546  Bus1=1_545  Bus2=1_546  Length=10   units=m Linecode=Line_185
New Line.MVFeeder1.547  Bus1=1_546  Bus2=1_547  Length=10   units=m Linecode=Line_185
New Line.MVFeeder1.548  Bus1=1_547  Bus2=1_548  Length=10   units=m Linecode=Line_185
New Line.MVFeeder1.549  Bus1=1_548  Bus2=1_549  Length=10   units=m Linecode=Line_185
New Line.MVFeeder1.550  Bus1=1_549  Bus2=1_550  Length=10   units=m Linecode=Line_185
New Line.MVFeeder1.551  Bus1=1_550  Bus2=1_551  Length=10   units=m Linecode=Line_185
New Line.MVFeeder1.552  Bus1=1_551  Bus2=1_552  Length=10   units=m Linecode=Line_185
New Line.MVFeeder1.553  Bus1=1_552  Bus2=1_553  Length=10   units=m Linecode=Line_185
New Line.MVFeeder1.554  Bus1=1_553  Bus2=1_554  Length=10   units=m Linecode=Line_185
New Line.MVFeeder1.555  Bus1=1_554  Bus2=1_555  Length=10   units=m Linecode=Line_185
New Line.MVFeeder1.556  Bus1=1_555  Bus2=1_556  Length=10   units=m Linecode=Line_185
New Line.MVFeeder1.557  Bus1=1_556  Bus2=1_557  Length=10   units=m Linecode=Line_185
New Line.MVFeeder1.558  Bus1=1_557  Bus2=1_558  Length=10   units=m Linecode=Line_185
New Line.MVFeeder1.559  Bus1=1_558  Bus2=1_559  Length=10   units=m Linecode=Line_185
New Line.MVFeeder1.560  Bus1=1_559  Bus2=1_560  Length=10   units=m Linecode=Line_185
New Line.MVFeeder1.561  Bus1=1_560  Bus2=1_561  Length=10   units=m Linecode=Line_185
New Line.MVFeeder1.562  Bus1=1_561  Bus2=1_562  Length=10   units=m Linecode=Line_185
New Line.MVFeeder1.563  Bus1=1_562  Bus2=1_563  Length=10   units=m Linecode=Line_185
New Line.MVFeeder1.564  Bus1=1_563  Bus2=1_564  Length=10   units=m Linecode=Line_185
New Line.MVFeeder1_end  Bus1=1_564  Bus2=1_565  Length=10   units=m Linecode=Line_185
                        
New Line.MVLateral1_start_3 Bus1=1_564  Bus2=1_566  Length=10   units=m Linecode=Line_95
                        
New Line.MVLateral1.567 Bus1=1_566  Bus2=1_567  Length=10   units=m Linecode=Line_95
New Line.MVLateral1.568 Bus1=1_567  Bus2=1_568  Length=10   units=m Linecode=Line_95
New Line.MVLateral1.569 Bus1=1_568  Bus2=1_569  Length=10   units=m Linecode=Line_95
New Line.MVLateral1.570 Bus1=1_569  Bus2=1_570  Length=10   units=m Linecode=Line_95
New Line.MVLateral1.571 Bus1=1_570  Bus2=1_571  Length=10   units=m Linecode=Line_95
New Line.MVLateral1.572 Bus1=1_571  Bus2=1_572  Length=10   units=m Linecode=Line_95
New Line.MVLateral1.573 Bus1=1_572  Bus2=1_573  Length=10   units=m Linecode=Line_95
New Line.MVLateral1.574 Bus1=1_573  Bus2=1_574  Length=10   units=m Linecode=Line_95
New Line.MVLateral1.575 Bus1=1_574  Bus2=1_575  Length=10   units=m Linecode=Line_95
New Line.MVLateral1.576 Bus1=1_575  Bus2=1_576  Length=10   units=m Linecode=Line_95
New Line.MVLateral1.577 Bus1=1_576  Bus2=1_577  Length=10   units=m Linecode=Line_95
New Line.MVLateral1.578 Bus1=1_577  Bus2=1_578  Length=10   units=m Linecode=Line_95
New Line.MVLateral1.579 Bus1=1_578  Bus2=1_579  Length=10   units=m Linecode=Line_95
New Line.MVLateral1.580 Bus1=1_579  Bus2=1_580  Length=10   units=m Linecode=Line_95
New Line.MVLateral1.581 Bus1=1_580  Bus2=1_581  Length=10   units=m Linecode=Line_95
New Line.MVLateral1.582 Bus1=1_581  Bus2=1_582  Length=10   units=m Linecode=Line_95
New Line.MVLateral1.583 Bus1=1_582  Bus2=1_583  Length=10   units=m Linecode=Line_95
New Line.MVLateral1.584 Bus1=1_583  Bus2=1_584  Length=10   units=m Linecode=Line_95
New Line.MVLateral1.585 Bus1=1_584  Bus2=1_585  Length=10   units=m Linecode=Line_95
New Line.MVLateral1.586 Bus1=1_585  Bus2=1_586  Length=10   units=m Linecode=Line_95
New Line.MVLateral1.587 Bus1=1_586  Bus2=1_587  Length=10   units=m Linecode=Line_95
New Line.MVLateral1.588 Bus1=1_587  Bus2=1_588  Length=10   units=m Linecode=Line_95
New Line.MVLateral1.589 Bus1=1_588  Bus2=1_589  Length=10   units=m Linecode=Line_95
New Line.MVLateral1.590 Bus1=1_589  Bus2=1_590  Length=10   units=m Linecode=Line_95
New Line.MVLateral1.591 Bus1=1_590  Bus2=1_591  Length=10   units=m Linecode=Line_95
New Line.MVLateral1.592 Bus1=1_591  Bus2=1_592  Length=10   units=m Linecode=Line_95
New Line.MVLateral1.593 Bus1=1_592  Bus2=1_593  Length=10   units=m Linecode=Line_95
New Line.MVLateral1.594 Bus1=1_593  Bus2=1_594  Length=10   units=m Linecode=Line_95
New Line.MVLateral1.595 Bus1=1_594  Bus2=1_595  Length=10   units=m Linecode=Line_95
New Line.MVLateral1.596 Bus1=1_595  Bus2=1_596  Length=10   units=m Linecode=Line_95
New Line.MVLateral1.597 Bus1=1_596  Bus2=1_597  Length=10   units=m Linecode=Line_95
New Line.MVLateral1.598 Bus1=1_597  Bus2=1_598  Length=10   units=m Linecode=Line_95
New Line.MVLateral1.599 Bus1=1_598  Bus2=1_599  Length=10   units=m Linecode=Line_95
New Line.MVLateral1.600 Bus1=1_599  Bus2=1_600  Length=10   units=m Linecode=Line_95
New Line.MVLateral1.601 Bus1=1_600  Bus2=1_601  Length=10   units=m Linecode=Line_95
New Line.MVLateral1.602 Bus1=1_601  Bus2=1_602  Length=10   units=m Linecode=Line_95
New Line.MVLateral1.603 Bus1=1_602  Bus2=1_603  Length=10   units=m Linecode=Line_95
New Line.MVLateral1.604 Bus1=1_603  Bus2=1_604  Length=10   units=m Linecode=Line_95
New Line.MVLateral1.605 Bus1=1_604  Bus2=1_605  Length=10   units=m Linecode=Line_95
New Line.MVLateral1.606 Bus1=1_605  Bus2=1_606  Length=10   units=m Linecode=Line_95
New Line.MVLateral1.607 Bus1=1_606  Bus2=1_607  Length=10   units=m Linecode=Line_95
New Line.MVLateral1.608 Bus1=1_607  Bus2=1_608  Length=10   units=m Linecode=Line_95
New Line.MVLateral1.609 Bus1=1_608  Bus2=1_609  Length=10   units=m Linecode=Line_95
New Line.MVLateral1.610 Bus1=1_609  Bus2=1_610  Length=10   units=m Linecode=Line_95
New Line.MVLateral1.611 Bus1=1_610  Bus2=1_611  Length=10   units=m Linecode=Line_95
New Line.MVLateral1.612 Bus1=1_611  Bus2=1_612  Length=10   units=m Linecode=Line_95
New Line.MVLateral1.613 Bus1=1_612  Bus2=1_613  Length=10   units=m Linecode=Line_95
New Line.MVLateral1.614 Bus1=1_613  Bus2=1_614  Length=10   units=m Linecode=Line_95
New Line.MVLateral1.615 Bus1=1_614  Bus2=1_615  Length=10   units=m Linecode=Line_95
New Line.MVLateral1.616 Bus1=1_615  Bus2=1_616  Length=10   units=m Linecode=Line_95
New Line.MVLateral1.617 Bus1=1_616  Bus2=1_617  Length=10   units=m Linecode=Line_95
New Line.MVLateral1.618 Bus1=1_617  Bus2=1_618  Length=10   units=m Linecode=Line_95
New Line.MVLateral1.619 Bus1=1_618  Bus2=1_619  Length=10   units=m Linecode=Line_95
New Line.MVLateral1.620 Bus1=1_619  Bus2=1_620  Length=10   units=m Linecode=Line_95
New Line.MVLateral1.621 Bus1=1_620  Bus2=1_621  Length=10   units=m Linecode=Line_95
New Line.MVLateral1.622 Bus1=1_621  Bus2=1_622  Length=10   units=m Linecode=Line_95
New Line.MVLateral1.623 Bus1=1_622  Bus2=1_623  Length=10   units=m Linecode=Line_95
New Line.MVLateral1.624 Bus1=1_623  Bus2=1_624  Length=10   units=m Linecode=Line_95
New Line.MVLateral1.625 Bus1=1_624  Bus2=1_625  Length=10   units=m Linecode=Line_95
New Line.MVLateral1.626 Bus1=1_625  Bus2=1_626  Length=10   units=m Linecode=Line_95
New Line.MVLateral1.627 Bus1=1_626  Bus2=1_627  Length=10   units=m Linecode=Line_95
New Line.MVLateral1.628 Bus1=1_627  Bus2=1_628  Length=10   units=m Linecode=Line_95
New Line.MVLateral1.629 Bus1=1_628  Bus2=1_629  Length=10   units=m Linecode=Line_95
New Line.MVLateral1.630 Bus1=1_629  Bus2=1_630  Length=10   units=m Linecode=Line_95
New Line.MVLateral1.631 Bus1=1_630  Bus2=1_631  Length=10   units=m Linecode=Line_95
New Line.MVLateral1.632 Bus1=1_631  Bus2=1_632  Length=10   units=m Linecode=Line_95
New Line.MVLateral1.633 Bus1=1_632  Bus2=1_633  Length=10   units=m Linecode=Line_95
New Line.MVLateral1.634 Bus1=1_633  Bus2=1_634  Length=10   units=m Linecode=Line_95
New Line.MVLateral1.635 Bus1=1_634  Bus2=1_635  Length=10   units=m Linecode=Line_95
New Line.MVLateral1.636 Bus1=1_635  Bus2=1_636  Length=10   units=m Linecode=Line_95
New Line.MVLateral1.637 Bus1=1_636  Bus2=1_637  Length=10   units=m Linecode=Line_95
New Line.MVLateral1.638 Bus1=1_637  Bus2=1_638  Length=10   units=m Linecode=Line_95
New Line.MVLateral1.639 Bus1=1_638  Bus2=1_639  Length=10   units=m Linecode=Line_95
New Line.MVLateral1.640 Bus1=1_639  Bus2=1_640  Length=10   units=m Linecode=Line_95
New Line.MVLateral1.641 Bus1=1_640  Bus2=1_641  Length=10   units=m Linecode=Line_95
New Line.MVLateral1.642 Bus1=1_641  Bus2=1_642  Length=10   units=m Linecode=Line_95
New Line.MVLateral1.643 Bus1=1_642  Bus2=1_643  Length=10   units=m Linecode=Line_95
New Line.MVLateral1.644 Bus1=1_643  Bus2=1_644  Length=10   units=m Linecode=Line_95
New Line.MVLateral1.645 Bus1=1_644  Bus2=1_645  Length=10   units=m Linecode=Line_95
New Line.MVLateral1.646 Bus1=1_645  Bus2=1_646  Length=10   units=m Linecode=Line_95
New Line.MVLateral1.647 Bus1=1_646  Bus2=1_647  Length=10   units=m Linecode=Line_95
New Line.MVLateral1.648 Bus1=1_647  Bus2=1_648  Length=10   units=m Linecode=Line_95
New Line.MVLateral1.649 Bus1=1_648  Bus2=1_649  Length=10   units=m Linecode=Line_95
New Line.MVLateral1.650 Bus1=1_649  Bus2=1_650  Length=10   units=m Linecode=Line_95
New Line.MVLateral1.651 Bus1=1_650  Bus2=1_651  Length=10   units=m Linecode=Line_95
New Line.MVLateral1.652 Bus1=1_651  Bus2=1_652  Length=10   units=m Linecode=Line_95
New Line.MVLateral1.653 Bus1=1_652  Bus2=1_653  Length=10   units=m Linecode=Line_95
New Line.MVLateral1.654 Bus1=1_653  Bus2=1_654  Length=10   units=m Linecode=Line_95
New Line.MVLateral1.655 Bus1=1_654  Bus2=1_655  Length=10   units=m Linecode=Line_95
New Line.MVLateral1.656 Bus1=1_655  Bus2=1_656  Length=10   units=m Linecode=Line_95
New Line.MVLateral1.657 Bus1=1_656  Bus2=1_657  Length=10   units=m Linecode=Line_95
New Line.MVLateral1.658 Bus1=1_657  Bus2=1_658  Length=10   units=m Linecode=Line_95
New Line.MVLateral1.659 Bus1=1_658  Bus2=1_659  Length=10   units=m Linecode=Line_95
New Line.MVLateral1.660 Bus1=1_659  Bus2=1_660  Length=10   units=m Linecode=Line_95
New Line.MVLateral1.661 Bus1=1_660  Bus2=1_661  Length=10   units=m Linecode=Line_95
New Line.MVLateral1.662 Bus1=1_661  Bus2=1_662  Length=10   units=m Linecode=Line_95
New Line.MVLateral1.663 Bus1=1_662  Bus2=1_663  Length=10   units=m Linecode=Line_95
New Line.MVLateral1.664 Bus1=1_663  Bus2=1_664  Length=10   units=m Linecode=Line_95
New Line.MVLateral1.665 Bus1=1_664  Bus2=1_665  Length=10   units=m Linecode=Line_95
New Line.MVLateral1.666 Bus1=1_665  Bus2=1_666  Length=10   units=m Linecode=Line_95
New Line.MVLateral1.667 Bus1=1_666  Bus2=1_667  Length=10   units=m Linecode=Line_95
New Line.MVLateral1.668 Bus1=1_667  Bus2=1_668  Length=10   units=m Linecode=Line_95
New Line.MVLateral1.669 Bus1=1_668  Bus2=1_669  Length=10   units=m Linecode=Line_95
New Line.MVLateral1.670 Bus1=1_669  Bus2=1_670  Length=10   units=m Linecode=Line_95
New Line.MVLateral1.671 Bus1=1_670  Bus2=1_671  Length=10   units=m Linecode=Line_95
New Line.MVLateral1.672 Bus1=1_671  Bus2=1_672  Length=10   units=m Linecode=Line_95
New Line.MVLateral1.673 Bus1=1_672  Bus2=1_673  Length=10   units=m Linecode=Line_95
New Line.MVLateral1.674 Bus1=1_673  Bus2=1_674  Length=10   units=m Linecode=Line_95
New Line.MVLateral1.675 Bus1=1_674  Bus2=1_675  Length=10   units=m Linecode=Line_95
New Line.MVLateral1.676 Bus1=1_675  Bus2=1_676  Length=10   units=m Linecode=Line_95
New Line.MVLateral1.677 Bus1=1_676  Bus2=1_677  Length=10   units=m Linecode=Line_95
New Line.MVLateral1.678 Bus1=1_677  Bus2=1_678  Length=10   units=m Linecode=Line_95
New Line.MVLateral1.679 Bus1=1_678  Bus2=1_679  Length=10   units=m Linecode=Line_95
New Line.MVLateral1.680 Bus1=1_679  Bus2=1_680  Length=10   units=m Linecode=Line_95
New Line.MVLateral1.681 Bus1=1_680  Bus2=1_681  Length=10   units=m Linecode=Line_95
New Line.MVLateral1.682 Bus1=1_681  Bus2=1_682  Length=10   units=m Linecode=Line_95
New Line.MVLateral1.683 Bus1=1_682  Bus2=1_683  Length=10   units=m Linecode=Line_95
New Line.MVLateral1.684 Bus1=1_683  Bus2=1_684  Length=10   units=m Linecode=Line_95
New Line.MVLateral1.685 Bus1=1_684  Bus2=1_685  Length=10   units=m Linecode=Line_95
New Line.MVLateral1.686 Bus1=1_685  Bus2=1_686  Length=10   units=m Linecode=Line_95
New Line.MVLateral1.687 Bus1=1_686  Bus2=1_687  Length=10   units=m Linecode=Line_95
New Line.MVLateral1.688 Bus1=1_687  Bus2=1_688  Length=10   units=m Linecode=Line_95
New Line.MVLateral1.689 Bus1=1_688  Bus2=1_689  Length=10   units=m Linecode=Line_95
New Line.MVLateral1.690 Bus1=1_689  Bus2=1_690  Length=10   units=m Linecode=Line_95
New Line.MVLateral1.691 Bus1=1_690  Bus2=1_691  Length=10   units=m Linecode=Line_95
New Line.MVLateral1.692 Bus1=1_691  Bus2=1_692  Length=10   units=m Linecode=Line_95
New Line.MVLateral1.693 Bus1=1_692  Bus2=1_693  Length=10   units=m Linecode=Line_95
New Line.MVLateral1.694 Bus1=1_693  Bus2=1_694  Length=10   units=m Linecode=Line_95
New Line.MVLateral1.695 Bus1=1_694  Bus2=1_695  Length=10   units=m Linecode=Line_95
New Line.MVLateral1.696 Bus1=1_695  Bus2=1_696  Length=10   units=m Linecode=Line_95
New Line.MVLateral1.697 Bus1=1_696  Bus2=1_697  Length=10   units=m Linecode=Line_95
New Line.MVLateral1.698 Bus1=1_697  Bus2=1_698  Length=10   units=m Linecode=Line_95
...